instances/data_GOC/Phase_0_Modified_RTS96/scenario_7/powersystem.raw
 0,  100.000000
rts96_spring_wday.raw / File written by to_psse.gms
5 / 19 / 2015
101, ' 101 ',138,2,1,1,1,1.00,0.00,1.1,0.9,1.1,0.9
102, ' 102 ',138,2,1,1,1,1.00,0.00,1.1,0.9,1.1,0.9
103, ' 103 ',138,1,1,1,1,1.00,0.00,1.1,0.9,1.1,0.9
104, ' 104 ',138,1,1,1,1,1.00,0.00,1.1,0.9,1.1,0.9
105, ' 105 ',138,1,1,1,1,1.00,0.00,1.1,0.9,1.1,0.9
106, ' 106 ',138,1,1,1,1,1.00,0.00,1.1,0.9,1.1,0.9
107, ' 107 ',138,2,1,1,1,1.00,0.00,1.1,0.9,1.1,0.9
108, ' 108 ',138,1,1,1,1,1.00,0.00,1.1,0.9,1.1,0.9
109, ' 109 ',138,1,1,1,1,1.00,0.00,1.1,0.9,1.1,0.9
110, ' 110 ',138,1,1,1,1,1.00,0.00,1.1,0.9,1.1,0.9
111, ' 111 ',230,1,1,1,1,1.00,0.00,1.1,0.9,1.1,0.9
112, ' 112 ',230,1,1,1,1,1.00,0.00,1.1,0.9,1.1,0.9
113, ' 113 ',230,3,1,1,1,1.00,0.00,1.1,0.9,1.1,0.9
114, ' 114 ',230,2,1,1,1,1.00,0.00,1.1,0.9,1.1,0.9
115, ' 115 ',230,2,1,1,1,1.00,0.00,1.1,0.9,1.1,0.9
116, ' 116 ',230,2,1,1,1,1.00,0.00,1.1,0.9,1.1,0.9
117, ' 117 ',230,1,1,1,1,1.00,0.00,1.1,0.9,1.1,0.9
118, ' 118 ',230,2,1,1,1,1.00,0.00,1.1,0.9,1.1,0.9
119, ' 119 ',230,1,1,1,1,1.00,0.00,1.1,0.9,1.1,0.9
120, ' 120 ',230,1,1,1,1,1.00,0.00,1.1,0.9,1.1,0.9
121, ' 121 ',230,2,1,1,1,1.00,0.00,1.1,0.9,1.1,0.9
122, ' 122 ',230,2,1,1,1,1.00,0.00,1.1,0.9,1.1,0.9
123, ' 123 ',230,2,1,1,1,1.00,0.00,1.1,0.9,1.1,0.9
124, ' 124 ',230,1,1,1,1,1.00,0.00,1.1,0.9,1.1,0.9
201, ' 201 ',138,2,1,1,1,1.00,0.00,1.1,0.9,1.1,0.9
202, ' 202 ',138,2,1,1,1,1.00,0.00,1.1,0.9,1.1,0.9
203, ' 203 ',138,1,1,1,1,1.00,0.00,1.1,0.9,1.1,0.9
204, ' 204 ',138,1,1,1,1,1.00,0.00,1.1,0.9,1.1,0.9
205, ' 205 ',138,1,1,1,1,1.00,0.00,1.1,0.9,1.1,0.9
206, ' 206 ',138,1,1,1,1,1.00,0.00,1.1,0.9,1.1,0.9
207, ' 207 ',138,2,1,1,1,1.00,0.00,1.1,0.9,1.1,0.9
208, ' 208 ',138,1,1,1,1,1.00,0.00,1.1,0.9,1.1,0.9
209, ' 209 ',138,1,1,1,1,1.00,0.00,1.1,0.9,1.1,0.9
210, ' 210 ',138,1,1,1,1,1.00,0.00,1.1,0.9,1.1,0.9
211, ' 211 ',230,1,1,1,1,1.00,0.00,1.1,0.9,1.1,0.9
212, ' 212 ',230,1,1,1,1,1.00,0.00,1.1,0.9,1.1,0.9
213, ' 213 ',230,2,1,1,1,1.00,0.00,1.1,0.9,1.1,0.9
214, ' 214 ',230,2,1,1,1,1.00,0.00,1.1,0.9,1.1,0.9
215, ' 215 ',230,2,1,1,1,1.00,0.00,1.1,0.9,1.1,0.9
216, ' 216 ',230,2,1,1,1,1.00,0.00,1.1,0.9,1.1,0.9
217, ' 217 ',230,1,1,1,1,1.00,0.00,1.1,0.9,1.1,0.9
218, ' 218 ',230,2,1,1,1,1.00,0.00,1.1,0.9,1.1,0.9
219, ' 219 ',230,1,1,1,1,1.00,0.00,1.1,0.9,1.1,0.9
220, ' 220 ',230,1,1,1,1,1.00,0.00,1.1,0.9,1.1,0.9
221, ' 221 ',230,2,1,1,1,1.00,0.00,1.1,0.9,1.1,0.9
222, ' 222 ',230,2,1,1,1,1.00,0.00,1.1,0.9,1.1,0.9
223, ' 223 ',230,2,1,1,1,1.00,0.00,1.1,0.9,1.1,0.9
224, ' 224 ',230,1,1,1,1,1.00,0.00,1.1,0.9,1.1,0.9
301, ' 301 ',138,2,1,1,1,1.00,0.00,1.1,0.9,1.1,0.9
302, ' 302 ',138,2,1,1,1,1.00,0.00,1.1,0.9,1.1,0.9
303, ' 303 ',138,1,1,1,1,1.00,0.00,1.1,0.9,1.1,0.9
304, ' 304 ',138,1,1,1,1,1.00,0.00,1.1,0.9,1.1,0.9
305, ' 305 ',138,1,1,1,1,1.00,0.00,1.1,0.9,1.1,0.9
306, ' 306 ',138,1,1,1,1,1.00,0.00,1.1,0.9,1.1,0.9
307, ' 307 ',138,2,1,1,1,1.00,0.00,1.1,0.9,1.1,0.9
308, ' 308 ',138,1,1,1,1,1.00,0.00,1.1,0.9,1.1,0.9
309, ' 309 ',138,1,1,1,1,1.00,0.00,1.1,0.9,1.1,0.9
310, ' 310 ',138,1,1,1,1,1.00,0.00,1.1,0.9,1.1,0.9
311, ' 311 ',230,1,1,1,1,1.00,0.00,1.1,0.9,1.1,0.9
312, ' 312 ',230,1,1,1,1,1.00,0.00,1.1,0.9,1.1,0.9
313, ' 313 ',230,2,1,1,1,1.00,0.00,1.1,0.9,1.1,0.9
314, ' 314 ',230,2,1,1,1,1.00,0.00,1.1,0.9,1.1,0.9
315, ' 315 ',230,2,1,1,1,1.00,0.00,1.1,0.9,1.1,0.9
316, ' 316 ',230,2,1,1,1,1.00,0.00,1.1,0.9,1.1,0.9
317, ' 317 ',230,1,1,1,1,1.00,0.00,1.1,0.9,1.1,0.9
318, ' 318 ',230,2,1,1,1,1.00,0.00,1.1,0.9,1.1,0.9
319, ' 319 ',230,1,1,1,1,1.00,0.00,1.1,0.9,1.1,0.9
320, ' 320 ',230,1,1,1,1,1.00,0.00,1.1,0.9,1.1,0.9
321, ' 321 ',230,2,1,1,1,1.00,0.00,1.1,0.9,1.1,0.9
322, ' 322 ',230,2,1,1,1,1.00,0.00,1.1,0.9,1.1,0.9
323, ' 323 ',230,2,1,1,1,1.00,0.00,1.1,0.9,1.1,0.9
324, ' 324 ',230,1,1,1,1,1.00,0.00,1.1,0.9,1.1,0.9
325, ' 325 ',230,1,1,1,1,1.00,0.00,1.1,0.9,1.1,0.9
0 / END OF BUS DATA, BEGIN LOAD DATA
101, '1 ',1,11,11,96.84852985105141,18.380350029060804,0.0,0.0,0.0,0.0,1,1,0
102, '1 ',1,11,12,76.82932404748333,17.128967056696304,0.0,0.0,0.0,0.0,1,1,0
103, '1 ',1,11,11,121.20556507221143,33.058048239361405,0.0,0.0,0.0,0.0,1,1,0
104, '1 ',1,11,11,59.63588870844812,8.416492753120371,0.0,0.0,0.0,0.0,1,1,0
105, '1 ',1,11,11,53.967010430528454,10.485463315330446,0.0,0.0,0.0,0.0,1,1,0
106, '1 ',1,11,12,90.18289733573981,21.72951648054924,0.0,0.0,0.0,0.0,1,1,0
107, '1 ',1,11,12,65.6580998272926,22.413107877062863,0.0,0.0,0.0,0.0,1,1,0
108, '1 ',1,11,12,114.18960941907875,19.742198381199035,0.0,0.0,0.0,0.0,1,1,0
109, '1 ',1,11,13,131.03855855525822,23.100849262116665,0.0,0.0,0.0,0.0,1,1,0
110, '1 ',1,11,13,153.5316329756621,35.07926978018135,0.0,0.0,0.0,0.0,1,1,0
111, '1 ',1,11,13,0.0,0.0,0.0,0.0,0.0,0.0,1,1,0
112, '1 ',1,11,13,0.0,0.0,0.0,0.0,0.0,0.0,1,1,0
113, '1 ',1,12,14,157.62821679047218,46.207791634319165,0.0,0.0,0.0,0.0,1,1,0
114, '1 ',1,12,16,96.09712300824746,22.13406156162601,0.0,0.0,0.0,0.0,1,1,0
115, '1 ',1,12,16,171.84612772758538,35.91912182743549,0.0,0.0,0.0,0.0,1,1,0
116, '1 ',1,12,16,72.29153598734177,9.852051545899359,0.0,0.0,0.0,0.0,1,1,0
117, '1 ',1,12,17,0.0,0.0,0.0,0.0,0.0,0.0,1,1,0
118, '1 ',1,12,17,246.12032047836115,52.149428432706564,0.0,0.0,0.0,0.0,1,1,0
119, '1 ',1,12,15,144.99434679127938,19.095649307572327,0.0,0.0,0.0,0.0,1,1,0
120, '1 ',1,12,15,74.34177419001459,14.95415658364445,0.0,0.0,0.0,0.0,1,1,0
121, '1 ',1,12,17,0.0,0.0,0.0,0.0,0.0,0.0,1,1,0
122, '1 ',1,12,17,0.0,0.0,0.0,0.0,0.0,0.0,1,1,0
123, '1 ',1,12,15,0.0,0.0,0.0,0.0,0.0,0.0,1,1,0
124, '1 ',1,12,16,0.0,0.0,0.0,0.0,0.0,0.0,1,1,0
201, '1 ',1,21,21,54.52698176179043,13.633658052399662,0.0,0.0,0.0,0.0,1,1,0
202, '1 ',1,21,22,80.00929985697563,10.815647707027383,0.0,0.0,0.0,0.0,1,1,0
203, '1 ',1,21,21,137.00050467649194,21.70027510023904,0.0,0.0,0.0,0.0,1,1,0
204, '1 ',1,21,21,46.14753756163409,10.402081908215301,0.0,0.0,0.0,0.0,1,1,0
205, '1 ',1,21,21,48.20758682272579,7.8617861755566665,0.0,0.0,0.0,0.0,1,1,0
206, '1 ',1,21,22,101.96162331496888,21.72340310056731,0.0,0.0,0.0,0.0,1,1,0
207, '1 ',1,21,22,100.09811427087989,14.627429549127118,0.0,0.0,0.0,0.0,1,1,0
208, '1 ',1,21,22,118.40277039819946,28.031633867030962,0.0,0.0,0.0,0.0,1,1,0
209, '1 ',1,21,23,96.29715307367965,26.2617620912103,0.0,0.0,0.0,0.0,1,1,0
210, '1 ',1,21,23,161.02573712132522,21.091839500019326,0.0,0.0,0.0,0.0,1,1,0
211, '1 ',1,21,23,0.0,0.0,0.0,0.0,0.0,0.0,1,1,0
212, '1 ',1,21,23,0.0,0.0,0.0,0.0,0.0,0.0,1,1,0
213, '1 ',1,22,24,192.89852184597706,47.72120033144094,0.0,0.0,0.0,0.0,1,1,0
214, '1 ',1,22,26,171.88788969761126,30.40777315323148,0.0,0.0,0.0,0.0,1,1,0
215, '1 ',1,22,26,246.87037173727032,44.34017560274005,0.0,0.0,0.0,0.0,1,1,0
216, '1 ',1,22,26,82.91975732090883,18.011101735440082,0.0,0.0,0.0,0.0,1,1,0
217, '1 ',1,22,27,0.0,0.0,0.0,0.0,0.0,0.0,1,1,0
218, '1 ',1,22,27,293.1515165495998,37.02399509231206,0.0,0.0,0.0,0.0,1,1,0
219, '1 ',1,22,25,100.31268172908844,32.945087173390526,0.0,0.0,0.0,0.0,1,1,0
220, '1 ',1,22,25,68.66414424998759,13.843605568712018,0.0,0.0,0.0,0.0,1,1,0
221, '1 ',1,22,27,0.0,0.0,0.0,0.0,0.0,0.0,1,1,0
222, '1 ',1,22,27,0.0,0.0,0.0,0.0,0.0,0.0,1,1,0
223, '1 ',1,22,25,0.0,0.0,0.0,0.0,0.0,0.0,1,1,0
224, '1 ',1,22,26,0.0,0.0,0.0,0.0,0.0,0.0,1,1,0
301, '1 ',1,31,31,92.19277622578235,17.7602092100624,0.0,0.0,0.0,0.0,1,1,0
302, '1 ',1,31,32,71.132195779981,17.651957717176526,0.0,0.0,0.0,0.0,1,1,0
303, '1 ',1,31,31,95.53827263723964,32.37772030066838,0.0,0.0,0.0,0.0,1,1,0
304, '1 ',1,31,31,66.38681644257315,10.56540988947032,0.0,0.0,0.0,0.0,1,1,0
305, '1 ',1,31,31,36.66418220397527,9.107745638024713,0.0,0.0,0.0,0.0,1,1,0
306, '1 ',1,31,32,66.03454862906746,14.358357038178294,0.0,0.0,0.0,0.0,1,1,0
307, '1 ',1,31,32,64.67050713976495,16.16967113659135,0.0,0.0,0.0,0.0,1,1,0
308, '1 ',1,31,32,116.84691253940352,20.80724347088998,0.0,0.0,0.0,0.0,1,1,0
309, '1 ',1,31,33,137.05942581792246,25.183579740081914,0.0,0.0,0.0,0.0,1,1,0
310, '1 ',1,31,33,175.5185361829279,23.944916684757917,0.0,0.0,0.0,0.0,1,1,0
311, '1 ',1,31,33,0.0,0.0,0.0,0.0,0.0,0.0,1,1,0
312, '1 ',1,31,33,0.0,0.0,0.0,0.0,0.0,0.0,1,1,0
313, '1 ',1,32,34,131.32955089723853,33.93524974660137,0.0,0.0,0.0,0.0,1,1,0
314, '1 ',1,32,36,108.03191797154518,25.881370507440018,0.0,0.0,0.0,0.0,1,1,0
315, '1 ',1,32,36,206.19510420815405,37.77669279480278,0.0,0.0,0.0,0.0,1,1,0
316, '1 ',1,32,36,52.46057088745292,12.986420515447854,0.0,0.0,0.0,0.0,1,1,0
317, '1 ',1,32,37,0.0,0.0,0.0,0.0,0.0,0.0,1,1,0
318, '1 ',1,32,37,201.44707401277748,47.3607516222993,0.0,0.0,0.0,0.0,1,1,0
319, '1 ',1,32,35,145.50630858935054,28.96710102958507,0.0,0.0,0.0,0.0,1,1,0
320, '1 ',1,32,35,85.26443224384188,15.922148722143007,0.0,0.0,0.0,0.0,1,1,0
321, '1 ',1,32,37,0.0,0.0,0.0,0.0,0.0,0.0,1,1,0
322, '1 ',1,32,37,0.0,0.0,0.0,0.0,0.0,0.0,1,1,0
323, '1 ',1,32,35,0.0,0.0,0.0,0.0,0.0,0.0,1,1,0
324, '1 ',1,32,36,0.0,0.0,0.0,0.0,0.0,0.0,1,1,0
325, '1 ',1,32,35,0.0,0.0,0.0,0.0,0.0,0.0,1,1,0
0 / END OF LOAD DATA, BEGIN FIXED SHUNT DATA
0 / END OF FIXED SHUNT DATA, BEGIN GENERATOR DATA
101,1,10,0,7.514633388724178,-1.5607748944312334,1.035,0,24,0,1,0,0,1,1,100,24.127730715088546,18.953226827979087,1,1,0,1
101,2,10,0,10.326733587309718,0.6430604816414416,1.035,0,24,0,1,0,0,1,1,100,16.340995273552835,12.313094478128479,1,1,0,1
101,3,76,14.1,38.41650327807293,-13.463940825080492,1.035,0,89,0,1,0,0,1,1,100,86.32523065861314,36.710046401880675,1,1,0,1
101,4,76,14.1,30.43396393815055,-20.328464160207663,1.035,0,89,0,1,0,0,1,1,100,88.38443027585744,43.53608269646764,1,1,0,1
102,5,10,0,7.496171098668127,-2.242579562589527,1.035,0,24,0,1,0,0,1,1,100,23.83627488464117,20.100090830456466,1,1,0,1
102,6,10,0,9.00276159774512,-0.31327844643965364,1.035,0,24,0,1,0,0,1,1,100,23.747539883479476,20.232093769917267,1,1,0,1
102,7,76,7,23.635510586667802,-35.56422605435364,1.035,0,89,0,1,0,0,1,1,100,81.20405031573027,24.788017245195803,1,1,0,1
102,8,76,7,22.019331215880808,-39.37332217232324,1.035,0,89,0,1,0,0,1,1,100,85.59467012882233,42.74171493113042,1,1,0,1
107,9,80,17.2,59.96587500907481,-7.517936876043677,1.025,0,118,0,1,0,0,1,1,100,117.79904402792454,52.60597500950098,1,1,0,1
107,10,80,17.2,71.67599569447339,13.095232799649239,1.025,0,118,0,1,0,0,1,1,100,129.11079408135265,57.42483596550301,1,1,0,1
107,11,80,17.2,67.89664249308407,-2.009022739715874,1.025,0,118,0,1,0,0,1,1,100,97.6728456793353,13.942813497269526,1,1,0,1
113,12,95.1,40.7,58.38522468507289,0.9071830697357584,1.02,0,232,0,1,0,0,1,1,100,163.1793543390464,24.996977214142674,1,1,0,1
113,13,95.1,40.7,65.11541133001447,0.45227640867233276,1.02,0,232,0,1,0,0,1,1,100,244.8616813966073,135.6674280633661,1,1,0,1
113,14,95.1,40.7,61.96654709801077,-8.721679586917169,1.02,0,232,0,1,0,0,1,1,100,229.73160897521302,117.39674006538232,1,1,0,1
114,15,0,13.7,186.02247377857566,-72.7378718322143,0.98,0,100,0,1,0,0,1,1,100,0.0,0.0,1,1,0,1
115,16,12,0,6.668644117657095,-0.9297309642657643,1.014,0,14,0,1,0,0,1,1,100,11.557836745865643,2.1399333897605537,1,1,0,1
115,17,12,0,6.984965446405113,0.36682051755487866,1.014,0,14,0,1,0,0,1,1,100,10.21428479142487,4.6050168126538855,1,1,0,1
115,18,12,0,6.984310906101019,0.4322904082015171,1.014,0,14,0,1,0,0,1,1,100,11.012367537617685,3.8897760097682497,1,1,0,1
115,19,12,0,5.276251193135977,0.693547444324941,1.014,0,14,0,1,0,0,1,1,100,12.978673585876821,0.9668981929868448,1,1,0,1
115,20,12,0,5.074659453146159,-1.5865340192802249,1.014,0,14,0,1,0,0,1,1,100,8.90479035526514,1.7666134911775595,1,1,0,1
115,21,155,0.05,63.11459858343005,-51.75834510009736,1.014,0,182,0,1,0,0,1,1,100,132.62544844881631,56.46401276651305,1,1,0,1
116,22,155,25.22,65.75483211129904,-74.35665465844795,1.017,0,182,0,1,0,0,1,1,100,198.7528632550966,107.76457543473225,1,1,0,1
118,23,400,137.4,150.80790987238285,-48.409106109756976,1.05,0,471,0,1,0,0,1,1,100,362.7049067430198,32.06406605895609,1,1,0,1
121,24,400,108.2,218.5144546907395,-57.22016311483458,1.05,0,471,0,1,0,0,1,1,100,492.4088432453573,110.21546530537307,1,1,0,1
122,25,50,-4.96,18.40605647265911,-2.8444473510608077,1.05,0,53,0,1,0,0,1,1,100,53.08384979609399,35.822876074711935,1,1,0,1
122,26,50,-4.96,18.738063491880894,-10.916043335106224,1.05,0,53,0,1,0,0,1,1,100,39.98872831230983,2.09689998999238,1,1,0,1
122,27,50,-4.96,12.81017860174179,-13.39865220496431,1.05,0,53,0,1,0,0,1,1,100,52.38281192490831,12.94155650306493,1,1,0,1
122,28,50,-4.96,13.105482581257819,-8.561970963794737,1.05,0,53,0,1,0,0,1,1,100,41.16119587095454,21.125360841124916,1,1,0,1
122,29,50,-4.96,11.551263938844203,-17.249931277427827,1.05,0,53,0,1,0,0,1,1,100,52.805918033700436,14.138604034669697,1,1,0,1
122,30,50,-4.96,19.995690406113866,-0.518684579432005,1.05,0,53,0,1,0,0,1,1,100,46.36285968590528,36.61893266752112,1,1,0,1
123,31,155,31.79,95.39613113552332,-63.90799019858241,1.05,0,182,0,1,0,0,1,1,100,160.1629659049213,43.69431068771519,1,1,0,1
123,32,155,31.79,85.15569785609841,-60.363236204721034,1.05,0,182,0,1,0,0,1,1,100,183.1651628871914,66.9678172598011,1,1,0,1
123,33,350,71.78,194.01691675186157,36.92676140577532,1.05,0,412,0,1,0,0,1,1,100,371.4366864878684,126.98277071816847,1,1,0,1
201,34,10,0,12.248478757217526,-0.03736546263098717,1.035,0,24,0,1,0,0,1,1,100,25.256325126625597,21.14707687730901,1,1,0,1
201,35,10,0,11.446888137608767,2.0476339696906507,1.035,0,24,0,1,0,0,1,1,100,16.9673471422866,11.802864655675368,1,1,0,1
201,36,76,14.1,26.9935043589212,-34.80965746450238,1.035,0,89,0,1,0,0,1,1,100,98.19231142662466,29.48427108906209,1,1,0,1
201,37,76,14.1,30.23471139371395,-40.76921118795873,1.035,0,89,0,1,0,0,1,1,100,64.07999572381377,16.8498748794198,1,1,0,1
202,38,10,0,12.364885851740839,4.921633707359435,1.035,0,24,0,1,0,0,1,1,100,23.088567279279232,18.371202893611045,1,1,0,1
202,39,10,0,9.368224517442286,0.8479184154421091,1.035,0,24,0,1,0,0,1,1,100,14.343739837408066,9.537051319209858,1,1,0,1
202,40,76,7,37.11774808494375,-11.540559335844584,1.035,0,89,0,1,0,0,1,1,100,86.16672791801393,15.784994358196855,1,1,0,1
202,41,76,7,25.01048163324594,-13.672177170170475,1.035,0,89,0,1,0,0,1,1,100,73.93079462610186,15.125244423672562,1,1,0,1
207,42,80,17.2,47.505935241468244,-7.7366798305884075,1.025,0,118,0,1,0,0,1,1,100,117.31200215872377,31.27998286508955,1,1,0,1
207,43,80,17.2,60.40403590444476,-4.956936593167477,1.025,0,118,0,1,0,0,1,1,100,79.65008083265275,52.08519284963987,1,1,0,1
207,44,80,17.2,77.91175154317172,20.38423969969155,1.025,0,118,0,1,0,0,1,1,100,103.90380015596747,48.06112095480785,1,1,0,1
213,45,95.1,40.7,73.63273426145315,-7.931088477373123,1.02,0,232,0,1,0,0,1,1,100,193.17083855355156,78.14977313272186,1,1,0,1
213,46,95.1,40.7,75.37317382544279,-2.389217209070921,1.02,0,232,0,1,0,0,1,1,100,188.19658465590328,89.27732159414327,1,1,0,1
213,47,95.1,40.7,90.8726246803999,14.906350515782833,1.02,0,232,0,1,0,0,1,1,100,161.7200972155202,56.98288926376728,1,1,0,1
214,48,0,13.68,200.21128808148205,-0.994634220842272,0.98,0,100,0,1,0,0,1,1,100,0.0,0.0,1,1,0,1
215,49,12,0,7.662843663711101,0.3758261592127372,1.014,0,14,0,1,0,0,1,1,100,13.949405615217984,1.6734276561811559,1,1,0,1
215,50,12,0,4.306284512020647,-0.358640814386308,1.014,0,14,0,1,0,0,1,1,100,14.590518648549915,4.997133415862919,1,1,0,1
215,51,12,0,6.928410600777716,0.7609386825934052,1.014,0,14,0,1,0,0,1,1,100,15.29776281416416,7.220117311477662,1,1,0,1
215,52,12,0,4.502882517781108,-2.6525259029120205,1.014,0,14,0,1,0,0,1,1,100,8.70873043667525,0.7783897452329857,1,1,0,1
215,53,12,0,4.797603650204837,0.421963284909725,1.014,0,14,0,1,0,0,1,1,100,11.586445718631147,4.812019583210348,1,1,0,1
215,54,155,0.048,71.91156331822276,-60.29426300432533,1.014,0,182,0,1,0,0,1,1,100,186.73769460176118,113.49584546893603,1,1,0,1
216,55,155,25.22,57.28331369906663,-44.277495047077544,1.017,0,182,0,1,0,0,1,1,100,189.8434827637393,94.1047638813965,1,1,0,1
218,56,400,137.4,193.578110197559,-87.05880948808044,1.05,0,471,0,1,0,0,1,1,100,319.9389939568936,43.81290959194297,1,1,0,1
221,57,400,108.2,193.36254592053592,-92.19611624721438,1.05,0,471,0,1,0,0,1,1,100,392.2847514972091,68.34412341471761,1,1,0,1
222,58,50,-4.96,17.93064366877079,-8.215397949237374,1.05,0,53,0,1,0,0,1,1,100,36.06973921181634,24.76956044640508,1,1,0,1
222,59,50,-4.96,20.10628562197089,-11.92535062180832,1.05,0,53,0,1,0,0,1,1,100,37.71045498084277,28.776163962538874,1,1,0,1
222,60,50,-4.96,19.666876938939097,-7.371022282354531,1.05,0,53,0,1,0,0,1,1,100,45.1392296818085,13.591921852369513,1,1,0,1
222,61,50,-4.96,16.021737227588893,-13.417570241726935,1.05,0,53,0,1,0,0,1,1,100,43.23914199601859,26.97110495137439,1,1,0,1
222,62,50,-4.96,17.851706974953412,-10.386267367750406,1.05,0,53,0,1,0,0,1,1,100,48.96697776392102,26.208341780886286,1,1,0,1
222,63,50,-4.96,15.629326975345611,-11.576537308376283,1.05,0,53,0,1,0,0,1,1,100,36.852200294379145,24.754816274065114,1,1,0,1
223,64,155,31.79,56.05666230246424,-86.02681559696794,1.05,0,182,0,1,0,0,1,1,100,162.01408172980882,52.191000588634054,1,1,0,1
223,65,155,31.79,60.20594149082899,-60.313164898660034,1.05,0,182,0,1,0,0,1,1,100,162.0315136136487,81.74806640630122,1,1,0,1
223,66,350,71.78,128.8803213997744,-79.87943457323126,1.05,0,412,0,1,0,0,1,1,100,433.5331995761954,167.86008311063057,1,1,0,1
301,67,10,0,11.887844818178564,-0.3431686107069254,1.035,0,24,0,1,0,0,1,1,100,18.838915521278977,14.250274091269821,1,1,0,1
301,68,10,0,12.927175327669831,3.9579508532769996,1.035,0,24,0,1,0,0,1,1,100,21.619126373901963,16.379831832973288,1,1,0,1
301,69,76,14.1,32.14464444760233,-15.486714884405956,1.035,0,89,0,1,0,0,1,1,100,67.0161806879565,58.54317743687745,1,1,0,1
301,70,76,14.1,33.578869263175875,-23.039051804924384,1.035,0,89,0,1,0,0,1,1,100,90.79460678361356,25.730164583697928,1,1,0,1
302,71,10,0,8.78267279593274,-1.1167017971165478,1.035,0,24,0,1,0,0,1,1,100,17.364283077418804,13.787768740979956,1,1,0,1
302,72,10,0,10.794544397853315,0.7506635687313974,1.035,0,24,0,1,0,0,1,1,100,15.879815386608243,11.605257736295462,1,1,0,1
302,73,76,7,25.236998572479934,-24.840755333425477,1.035,0,89,0,1,0,0,1,1,100,88.5043593801558,39.77831981405616,1,1,0,1
302,74,76,7,29.625396222341806,-31.526993876788772,1.035,0,89,0,1,0,0,1,1,100,66.41507867332548,6.1471170924231515,1,1,0,1
307,75,80,17.2,57.52290997747331,-9.440700997598476,1.025,0,118,0,1,0,0,1,1,100,127.90370698552577,36.42994733876547,1,1,0,1
307,76,80,17.2,72.8985655484721,18.650365873239934,1.025,0,118,0,1,0,0,1,1,100,96.7931219143793,6.499202038394287,1,1,0,1
307,77,80,17.2,73.89040050935,20.8022272400558,1.025,0,118,0,1,0,0,1,1,100,112.96826218254866,50.813096936326495,1,1,0,1
313,78,95.1,40.7,75.29360990598798,-22.107386972755194,1.02,0,232,0,1,0,0,1,1,100,149.64066488789393,58.52431434152413,1,1,0,1
313,79,95.1,40.7,57.58263199776411,-12.766834884881973,1.02,0,232,0,1,0,0,1,1,100,214.85695092049426,80.67917300284836,1,1,0,1
313,80,95.1,40.7,73.00654555484653,5.569824658334255,1.02,0,232,0,1,0,0,1,1,100,229.80338873532602,118.04460000619294,1,1,0,1
314,81,0,13.68,175.0889417808503,-91.44727266626433,0.98,0,100,0,1,0,0,1,1,100,0.0,0.0,1,1,0,1
315,82,12,0,6.7968343723565345,2.203579212259502,1.014,0,14,0,1,0,0,1,1,100,11.702780018560588,0.8870526611432421,1,1,0,1
315,83,12,0,5.348629496991634,-0.9681015903130179,1.014,0,14,0,1,0,0,1,1,100,12.190171321481465,3.9313774015009404,1,1,0,1
315,84,12,0,5.575013164803385,-0.44333023382350767,1.014,0,14,0,1,0,0,1,1,100,12.206559541448952,4.679177180305125,1,1,0,1
315,85,12,0,7.657056937739254,3.047349800728263,1.014,0,14,0,1,0,0,1,1,100,9.069668670371174,8.634520415504985,1,1,0,1
315,86,12,0,6.629463905375451,-0.09167522527277416,1.014,0,14,0,1,0,0,1,1,100,11.750039228796958,4.0842345835268485,1,1,0,1
315,87,155,0.048,89.38691551238298,-5.475025504361824,1.014,0,182,0,1,0,0,1,1,100,199.72247287468053,79.05153402953874,1,1,0,1
316,88,155,25.22,75.52547734230757,-77.8066687732935,1.017,0,182,0,1,0,0,1,1,100,138.47724937880412,63.590964390023146,1,1,0,1
318,89,400,137.4,230.17577677965164,55.02617905149236,1.05,0,471,0,1,0,0,1,1,100,513.161697499454,263.9204061636701,1,1,0,1
321,90,400,108.2,237.87164635024968,-28.471810133196385,1.05,0,471,0,1,0,0,1,1,100,502.23614353686565,147.61499865446234,1,1,0,1
322,91,50,-4.96,18.60996095687151,-13.713720748480412,1.05,0,53,0,1,0,0,1,1,100,58.906324717681855,12.604296295903623,1,1,0,1
322,92,50,-4.96,18.357309889793395,-12.774290423840284,1.05,0,53,0,1,0,0,1,1,100,45.28486038791016,0.6642546295188367,1,1,0,1
322,93,50,-4.96,16.740959699451924,-15.054079127963632,1.05,0,53,0,1,0,0,1,1,100,57.8639808553271,17.66265642363578,1,1,0,1
322,94,50,-4.96,13.979797175526619,-19.694050206523386,1.05,0,53,0,1,0,0,1,1,100,45.95484393648803,34.22528506615585,1,1,0,1
322,95,50,-4.96,16.743706522881986,-10.864184285048395,1.05,0,53,0,1,0,0,1,1,100,35.01176225487143,10.812731015799764,1,1,0,1
322,96,50,-4.96,14.58058786392212,-14.541728620417416,1.05,0,53,0,1,0,0,1,1,100,44.22413924476132,27.29948725797064,1,1,0,1
323,97,155,31.79,103.81727806478739,-12.100022344850004,1.05,0,182,0,1,0,0,1,1,100,114.24371936125681,36.326782959362035,1,1,0,1
323,98,155,31.79,71.94929217547178,-47.81465782923624,1.05,0,182,0,1,0,0,1,1,100,177.27379382611252,105.11736223644111,1,1,0,1
323,99,350,71.78,177.60359453503042,27.491039717569947,1.05,0,412,0,1,0,0,1,1,100,361.31964368280023,206.85263364529237,1,1,0,1
0 / END OF GENERATOR DATA, BEGIN BRANCH DATA
101,102,1,0.003,0.014,0.461,210.0,231.6,240.0,0,0,0,0,1,1,0,1,1
101,103,1,0.055,0.211,0.057,210.0,249.6,264.0,0,0,0,0,1,1,0,1,1
101,105,1,0.022,0.085,0.023,210.0,249.6,264.0,0,0,0,0,1,1,0,1,1
102,104,1,0.033,0.127,0.034,210.0,249.6,264.0,0,0,0,0,1,1,0,1,1
102,106,1,0.05,0.192,0.052,210.0,249.6,264.0,0,0,0,0,1,1,0,1,1
103,109,1,0.031,0.119,0.032,210.0,249.6,264.0,0,0,0,0,1,1,0,1,1
104,109,1,0.027,0.104,0.028,210.0,249.6,264.0,0,0,0,0,1,1,0,1,1
105,110,1,0.023,0.088,0.024,210.0,249.6,264.0,0,0,0,0,1,1,0,1,1
106,110,1,0.014,0.061,2.459,210.0,231.6,240.0,0,0,0,0,1,1,0,1,1
107,108,1,0.016,0.061,0.017,210.0,249.6,264.0,0,0,0,0,1,1,0,1,1
107,203,1,0.042,0.161,0.044,210.0,249.6,264.0,0,0,0,0,1,1,0,1,1
108,109,1,0.043,0.165,0.045,210.0,249.6,264.0,0,0,0,0,1,1,0,1,1
108,110,1,0.043,0.165,0.045,210.0,249.6,264.0,0,0,0,0,1,1,0,1,1
111,113,1,0.006,0.048,0.1,600.0,720.0,750.0,0,0,0,0,1,1,0,1,1
111,114,1,0.005,0.042,0.088,600.0,720.0,750.0,0,0,0,0,1,1,0,1,1
112,113,1,0.006,0.048,0.1,600.0,720.0,750.0,0,0,0,0,1,1,0,1,1
112,123,1,0.012,0.097,0.203,600.0,720.0,750.0,0,0,0,0,1,1,0,1,1
113,123,1,0.011,0.087,0.182,600.0,720.0,750.0,0,0,0,0,1,1,0,1,1
113,215,1,0.01,0.075,0.158,600.0,720.0,750.0,0,0,0,0,1,1,0,1,1
114,116,1,0.005,0.059,0.082,600.0,720.0,750.0,0,0,0,0,1,1,0,1,1
115,116,1,0.002,0.017,0.036,600.0,720.0,750.0,0,0,0,0,1,1,0,1,1
115,121,1,0.006,0.049,0.103,600.0,720.0,750.0,0,0,0,0,1,1,0,1,1
115,121,2,0.006,0.049,0.103,600.0,720.0,750.0,0,0,0,0,1,1,0,1,1
115,124,1,0.007,0.052,0.109,600.0,720.0,750.0,0,0,0,0,1,1,0,1,1
116,117,1,0.003,0.026,0.055,600.0,720.0,750.0,0,0,0,0,1,1,0,1,1
116,119,1,0.003,0.023,0.049,600.0,720.0,750.0,0,0,0,0,1,1,0,1,1
117,118,1,0.002,0.014,0.03,600.0,720.0,750.0,0,0,0,0,1,1,0,1,1
117,122,1,0.014,0.105,0.221,600.0,720.0,750.0,0,0,0,0,1,1,0,1,1
118,121,1,0.003,0.026,0.055,600.0,720.0,750.0,0,0,0,0,1,1,0,1,1
118,121,2,0.003,0.026,0.055,600.0,720.0,750.0,0,0,0,0,1,1,0,1,1
119,120,1,0.005,0.04,0.083,600.0,720.0,750.0,0,0,0,0,1,1,0,1,1
119,120,2,0.005,0.04,0.083,600.0,720.0,750.0,0,0,0,0,1,1,0,1,1
120,123,1,0.003,0.022,0.046,600.0,720.0,750.0,0,0,0,0,1,1,0,1,1
120,123,2,0.003,0.022,0.046,600.0,720.0,750.0,0,0,0,0,1,1,0,1,1
121,122,1,0.009,0.068,0.142,600.0,720.0,750.0,0,0,0,0,1,1,0,1,1
123,217,1,0.01,0.074,0.155,600.0,720.0,750.0,0,0,0,0,1,1,0,1,1
201,202,1,0.003,0.014,0.461,210.0,231.6,240.0,0,0,0,0,1,1,0,1,1
201,203,1,0.055,0.211,0.057,210.0,249.6,264.0,0,0,0,0,1,1,0,1,1
201,205,1,0.022,0.085,0.023,210.0,249.6,264.0,0,0,0,0,1,1,0,1,1
202,204,1,0.033,0.127,0.034,210.0,249.6,264.0,0,0,0,0,1,1,0,1,1
202,206,1,0.05,0.192,0.052,210.0,249.6,264.0,0,0,0,0,1,1,0,1,1
203,209,1,0.031,0.119,0.032,210.0,249.6,264.0,0,0,0,0,1,1,0,1,1
204,209,1,0.027,0.104,0.028,210.0,249.6,264.0,0,0,0,0,1,1,0,1,1
205,210,1,0.023,0.088,0.024,210.0,249.6,264.0,0,0,0,0,1,1,0,1,1
206,210,1,0.014,0.061,2.459,210.0,231.6,240.0,0,0,0,0,1,1,0,1,1
207,208,1,0.016,0.061,0.017,210.0,249.6,264.0,0,0,0,0,1,1,0,1,1
208,209,1,0.043,0.165,0.045,210.0,249.6,264.0,0,0,0,0,1,1,0,1,1
208,210,1,0.043,0.165,0.045,210.0,249.6,264.0,0,0,0,0,1,1,0,1,1
211,213,1,0.006,0.048,0.1,600.0,720.0,750.0,0,0,0,0,1,1,0,1,1
211,214,1,0.005,0.042,0.088,600.0,720.0,750.0,0,0,0,0,1,1,0,1,1
212,213,1,0.006,0.048,0.1,600.0,720.0,750.0,0,0,0,0,1,1,0,1,1
212,223,1,0.012,0.097,0.203,600.0,720.0,750.0,0,0,0,0,1,1,0,1,1
213,223,1,0.011,0.087,0.182,600.0,720.0,750.0,0,0,0,0,1,1,0,1,1
214,216,1,0.005,0.059,0.082,600.0,720.0,750.0,0,0,0,0,1,1,0,1,1
215,216,1,0.002,0.017,0.036,600.0,720.0,750.0,0,0,0,0,1,1,0,1,1
215,221,1,0.006,0.049,0.103,600.0,720.0,750.0,0,0,0,0,1,1,0,1,1
215,221,2,0.006,0.049,0.103,600.0,720.0,750.0,0,0,0,0,1,1,0,1,1
215,224,1,0.007,0.052,0.109,600.0,720.0,750.0,0,0,0,0,1,1,0,1,1
216,217,1,0.003,0.026,0.055,600.0,720.0,750.0,0,0,0,0,1,1,0,1,1
216,219,1,0.003,0.023,0.049,600.0,720.0,750.0,0,0,0,0,1,1,0,1,1
217,218,1,0.002,0.014,0.03,600.0,720.0,750.0,0,0,0,0,1,1,0,1,1
217,222,1,0.014,0.105,0.221,600.0,720.0,750.0,0,0,0,0,1,1,0,1,1
218,221,1,0.003,0.026,0.055,600.0,720.0,750.0,0,0,0,0,1,1,0,1,1
218,221,2,0.003,0.026,0.055,600.0,720.0,750.0,0,0,0,0,1,1,0,1,1
219,220,1,0.005,0.04,0.083,600.0,720.0,750.0,0,0,0,0,1,1,0,1,1
219,220,2,0.005,0.04,0.083,600.0,720.0,750.0,0,0,0,0,1,1,0,1,1
220,223,1,0.003,0.022,0.046,600.0,720.0,750.0,0,0,0,0,1,1,0,1,1
220,223,2,0.003,0.022,0.046,600.0,720.0,750.0,0,0,0,0,1,1,0,1,1
221,222,1,0.009,0.068,0.142,600.0,720.0,750.0,0,0,0,0,1,1,0,1,1
301,302,1,0.003,0.014,0.461,210.0,231.6,240.0,0,0,0,0,1,1,0,1,1
301,303,1,0.055,0.211,0.057,210.0,249.6,264.0,0,0,0,0,1,1,0,1,1
301,305,1,0.022,0.085,0.023,210.0,249.6,264.0,0,0,0,0,1,1,0,1,1
302,304,1,0.033,0.127,0.034,210.0,249.6,264.0,0,0,0,0,1,1,0,1,1
302,306,1,0.05,0.192,0.052,210.0,249.6,264.0,0,0,0,0,1,1,0,1,1
303,309,1,0.031,0.119,0.032,210.0,249.6,264.0,0,0,0,0,1,1,0,1,1
304,309,1,0.027,0.104,0.028,210.0,249.6,264.0,0,0,0,0,1,1,0,1,1
305,310,1,0.023,0.088,0.024,210.0,249.6,264.0,0,0,0,0,1,1,0,1,1
306,310,1,0.014,0.061,2.459,210.0,231.6,240.0,0,0,0,0,1,1,0,1,1
307,308,1,0.016,0.061,0.017,210.0,249.6,264.0,0,0,0,0,1,1,0,1,1
308,309,1,0.043,0.165,0.045,210.0,249.6,264.0,0,0,0,0,1,1,0,1,1
308,310,1,0.043,0.165,0.045,210.0,249.6,264.0,0,0,0,0,1,1,0,1,1
311,313,1,0.006,0.048,0.1,600.0,720.0,750.0,0,0,0,0,1,1,0,1,1
311,314,1,0.005,0.042,0.088,600.0,720.0,750.0,0,0,0,0,1,1,0,1,1
312,313,1,0.006,0.048,0.1,600.0,720.0,750.0,0,0,0,0,1,1,0,1,1
312,323,1,0.012,0.097,0.203,600.0,720.0,750.0,0,0,0,0,1,1,0,1,1
313,323,1,0.011,0.087,0.182,600.0,720.0,750.0,0,0,0,0,1,1,0,1,1
314,316,1,0.005,0.059,0.082,600.0,720.0,750.0,0,0,0,0,1,1,0,1,1
315,316,1,0.002,0.017,0.036,600.0,720.0,750.0,0,0,0,0,1,1,0,1,1
315,321,1,0.006,0.049,0.103,600.0,720.0,750.0,0,0,0,0,1,1,0,1,1
315,321,2,0.006,0.049,0.103,600.0,720.0,750.0,0,0,0,0,1,1,0,1,1
315,324,1,0.007,0.052,0.109,600.0,720.0,750.0,0,0,0,0,1,1,0,1,1
316,317,1,0.003,0.026,0.055,600.0,720.0,750.0,0,0,0,0,1,1,0,1,1
316,319,1,0.003,0.023,0.049,600.0,720.0,750.0,0,0,0,0,1,1,0,1,1
317,318,1,0.002,0.014,0.03,600.0,720.0,750.0,0,0,0,0,1,1,0,1,1
317,322,1,0.014,0.105,0.221,600.0,720.0,750.0,0,0,0,0,1,1,0,1,1
318,223,1,0.013,0.104,0.218,600.0,720.0,750.0,0,0,0,0,1,1,0,1,1
318,321,1,0.003,0.026,0.055,600.0,720.0,750.0,0,0,0,0,1,1,0,1,1
318,321,2,0.003,0.026,0.055,600.0,720.0,750.0,0,0,0,0,1,1,0,1,1
319,320,1,0.005,0.04,0.083,600.0,720.0,750.0,0,0,0,0,1,1,0,1,1
319,320,2,0.005,0.04,0.083,600.0,720.0,750.0,0,0,0,0,1,1,0,1,1
320,323,1,0.003,0.022,0.046,600.0,720.0,750.0,0,0,0,0,1,1,0,1,1
320,323,2,0.003,0.022,0.046,600.0,720.0,750.0,0,0,0,0,1,1,0,1,1
321,322,1,0.009,0.068,0.142,600.0,720.0,750.0,0,0,0,0,1,1,0,1,1
323,325,1,0,0.009,0,866.4,1071.6,1071.6,0,0,0,0,1,1,0,1,1
0 / END OF BRANCH DATA, BEGIN TRANSFORMER DATA
  103 ,  124 , 0,  1 , 1, 1, 1, 0, 0, 2, '            ',  1 , 1, 1
   0.002000 ,  0.084000 ,  100.000000
   1.015000 , 0,  0.000000 ,  400.000000 ,  510.000000 ,  600.000000 , 0, 0,  1.10 ,  0.90 ,  1.10 ,  0.90 , 33, 0, 0, 0
   1.000000, 0
  109 ,  111 , 0,  1 , 1, 1, 1, 0, 0, 2, '            ',  1 , 1, 1
   0.002000 ,  0.084000 ,  100.000000
   1.030000 , 0,  0.000000 ,  400.000000 ,  510.000000 ,  600.000000 , 0, 0,  1.10 ,  0.90 ,  1.10 ,  0.90 , 33, 0, 0, 0
   1.000000, 0
  109 ,  112 , 0,  1 , 1, 1, 1, 0, 0, 2, '            ',  1 , 1, 1
   0.002000 ,  0.084000 ,  100.000000
   1.030000 , 0,  0.000000 ,  400.000000 ,  510.000000 ,  600.000000 , 0, 0,  1.10 ,  0.90 ,  1.10 ,  0.90 , 33, 0, 0, 0
   1.000000, 0
  110 ,  111 , 0,  1 , 1, 1, 1, 0, 0, 2, '            ',  1 , 1, 1
   0.002000 ,  0.084000 ,  100.000000
   1.015000 , 0,  0.000000 ,  400.000000 ,  510.000000 ,  600.000000 , 0, 0,  1.10 ,  0.90 ,  1.10 ,  0.90 , 33, 0, 0, 0
   1.000000, 0
  110 ,  112 , 0,  1 , 1, 1, 1, 0, 0, 2, '            ',  1 , 1, 1
   0.002000 ,  0.084000 ,  100.000000
   1.015000 , 0,  0.000000 ,  400.000000 ,  510.000000 ,  600.000000 , 0, 0,  1.10 ,  0.90 ,  1.10 ,  0.90 , 33, 0, 0, 0
   1.000000, 0
  203 ,  224 , 0,  1 , 1, 1, 1, 0, 0, 2, '            ',  1 , 1, 1
   0.002000 ,  0.084000 ,  100.000000
   1.015000 , 0,  0.000000 ,  400.000000 ,  510.000000 ,  600.000000 , 0, 0,  1.10 ,  0.90 ,  1.10 ,  0.90 , 33, 0, 0, 0
   1.000000, 0
  209 ,  211 , 0,  1 , 1, 1, 1, 0, 0, 2, '            ',  1 , 1, 1
   0.002000 ,  0.084000 ,  100.000000
   1.030000 , 0,  0.000000 ,  400.000000 ,  510.000000 ,  600.000000 , 0, 0,  1.10 ,  0.90 ,  1.10 ,  0.90 , 33, 0, 0, 0
   1.000000, 0
  209 ,  212 , 0,  1 , 1, 1, 1, 0, 0, 2, '            ',  1 , 1, 1
   0.002000 ,  0.084000 ,  100.000000
   1.030000 , 0,  0.000000 ,  400.000000 ,  510.000000 ,  600.000000 , 0, 0,  1.10 ,  0.90 ,  1.10 ,  0.90 , 33, 0, 0, 0
   1.000000, 0
  210 ,  211 , 0,  1 , 1, 1, 1, 0, 0, 2, '            ',  1 , 1, 1
   0.002000 ,  0.084000 ,  100.000000
   1.015000 , 0,  0.000000 ,  400.000000 ,  510.000000 ,  600.000000 , 0, 0,  1.10 ,  0.90 ,  1.10 ,  0.90 , 33, 0, 0, 0
   1.000000, 0
  210 ,  212 , 0,  1 , 1, 1, 1, 0, 0, 2, '            ',  1 , 1, 1
   0.002000 ,  0.084000 ,  100.000000
   1.015000 , 0,  0.000000 ,  400.000000 ,  510.000000 ,  600.000000 , 0, 0,  1.10 ,  0.90 ,  1.10 ,  0.90 , 33, 0, 0, 0
   1.000000, 0
  303 ,  324 , 0,  1 , 1, 1, 1, 0, 0, 2, '            ',  1 , 1, 1
   0.002000 ,  0.084000 ,  100.000000
   1.015000 , 0,  0.000000 ,  400.000000 ,  510.000000 ,  600.000000 , 0, 0,  1.10 ,  0.90 ,  1.10 ,  0.90 , 33, 0, 0, 0
   1.000000, 0
  309 ,  311 , 0,  1 , 1, 1, 1, 0, 0, 2, '            ',  1 , 1, 1
   0.002000 ,  0.084000 ,  100.000000
   1.030000 , 0,  0.000000 ,  400.000000 ,  510.000000 ,  600.000000 , 0, 0,  1.10 ,  0.90 ,  1.10 ,  0.90 , 33, 0, 0, 0
   1.000000, 0
  309 ,  312 , 0,  1 , 1, 1, 1, 0, 0, 2, '            ',  1 , 1, 1
   0.002000 ,  0.084000 ,  100.000000
   1.030000 , 0,  0.000000 ,  400.000000 ,  510.000000 ,  600.000000 , 0, 0,  1.10 ,  0.90 ,  1.10 ,  0.90 , 33, 0, 0, 0
   1.000000, 0
  310 ,  311 , 0,  1 , 1, 1, 1, 0, 0, 2, '            ',  1 , 1, 1
   0.002000 ,  0.084000 ,  100.000000
   1.015000 , 0,  0.000000 ,  400.000000 ,  510.000000 ,  600.000000 , 0, 0,  1.10 ,  0.90 ,  1.10 ,  0.90 , 33, 0, 0, 0
   1.000000, 0
  310 ,  312 , 0,  1 , 1, 1, 1, 0, 0, 2, '            ',  1 , 1, 1
   0.002000 ,  0.084000 ,  100.000000
   1.015000 , 0,  0.000000 ,  400.000000 ,  510.000000 ,  600.000000 , 0, 0,  1.10 ,  0.90 ,  1.10 ,  0.90 , 33, 0, 0, 0
   1.000000, 0
0 / END OF TRANSFORMER DATA, BEGIN AREA DATA
0 / END OF AREA DATA, BEGIN TWO-TERMINAL DC DATA
0 / END OF TWO-TERMINAL DC DATA, BEGIN VSC DC LINE DATA
0 / END OF VSC DC LINE DATA, BEGIN SWITCHED SHUNT DATA
0 / END OF SWITCHED SHUNT DATA, BEGIN IMPEDANCE CORRECTION DATA
0 / END OF IMPEDANCE CORRECTION DATA, BEGIN MULTI-TERMINAL DC DATA
0 / END OF MULTI-TERMINAL DC DATA, BEGIN MULTI-SECTION LINE DATA
0 / END OF MULTI-SECTION LINE DATA, BEGIN ZONE DATA
0 / END OF ZONE DATA, BEGIN INTER-AREA TRANSFER DATA
0 / END OF INTER-AREA TRANSFER DATA, BEGIN OWNER DATA
0 / END OF OWNER DATA, BEGIN FACTS CONTROL DEVICE DATA
0 / END OF FACTS CONTROL DEVICE DATA
0 / END OF SWITCHED SHUNT DATA, BEGIN GNE DATA
0 / END OF GNE DATA, BEGIN INDUCTION MACHINE DATA
0 / END OF INDUCTION MACHINE DATA
Q 
